src/tests/data/grids/DGS/IEEE30_test.dgs
********************************************************************************
*
* DIgSILENT (R) DGS Export V1.8.4
* Copyright 1997-2026 DIgSILENT GmbH. All rights reserved.
*
* DIgSILENT (C) PowerFactory V25.0.3.0
*
* Date:     02/06/2026 10:00
* Project:  IEEE30_from_RAW (Study Case: Study Case)
*
********************************************************************************


$$General;FID(a:40);Descr(a:40);Val(a:255)
  1;Version;7.0


$$ElmLne;FID(a:40);OP(a:1);loc_name(a:80);fold_id(p);typ_id(p);dline(r);fline(r);GPScoords:MATRIX(a);nlnum(i);inAir(i)
  100;C;1_2_1;144;300;1;1;;1;0
  101;C;1_3_1;144;301;1;1;;1;0
  102;C;2_4_1;144;302;1;1;;1;0
  103;C;2_5_1;144;303;1;1;;1;0
  104;C;2_6_1;144;304;1;1;;1;0
  105;C;3_4_1;144;305;1;1;;1;0
  106;C;4_6_1;144;306;1;1;;1;0
  107;C;5_7_1;144;307;1;1;;1;0
  108;C;6_7_1;144;308;1;1;;1;0
  109;C;6_8_1;144;309;1;1;;1;0
  110;C;6_28_1;144;310;1;1;;1;0
  111;C;8_28_1;144;311;1;1;;1;0
  112;C;10_17_1;144;312;1;1;;1;0
  113;C;10_20_1;144;313;1;1;;1;0
  114;C;10_21_1;144;314;1;1;;1;0
  115;C;10_22_1;144;315;1;1;;1;0
  116;C;12_14_1;144;316;1;1;;1;0
  117;C;12_15_1;144;317;1;1;;1;0
  118;C;12_16_1;144;318;1;1;;1;0
  119;C;14_15_1;144;319;1;1;;1;0
  120;C;15_18_1;144;320;1;1;;1;0
  121;C;15_23_1;144;321;1;1;;1;0
  122;C;16_17_1;144;322;1;1;;1;0
  123;C;18_19_1;144;323;1;1;;1;0
  124;C;19_20_1;144;324;1;1;;1;0
  125;C;21_22_1;144;325;1;1;;1;0
  126;C;22_24_1;144;326;1;1;;1;0
  127;C;23_24_1;144;327;1;1;;1;0
  128;C;24_25_1;144;328;1;1;;1;0
  129;C;25_26_1;144;329;1;1;;1;0
  130;C;25_27_1;144;330;1;1;;1;0
  131;C;27_29_1;144;331;1;1;;1;0
  132;C;27_30_1;144;332;1;1;;1;0
  133;C;29_30_1;144;333;1;1;;1;0

$$ElmLod;FID(a:40);OP(a:1);loc_name(a:80);fold_id(p);typ_id(p);mode_inp(a:6);slini(r);plini(r);qlini(r);coslini(r);pf_recap(i);scale0(r);i_scale(i);outserv(i);classif(a:40)
  ElmLod_2_1;C;lod_2_1;144;900;DEF;25,14319;21,7;12,7;0,863057;0;1;1;0;
  ElmLod_3_1;C;lod_3_1;144;901;DEF;2,683282;2,4;1,2;0,894427;0;1;1;0;
  ElmLod_4_1;C;lod_4_1;144;902;DEF;7,766595;7,6;1,6;0,97855;0;1;1;0;
  ElmLod_5_1;C;lod_5_1;144;903;DEF;96,097034;94,2;19;0,980259;0;1;1;0;
  ElmLod_7_1;C;lod_7_1;144;904;DEF;25,271525;22,8;10,9;0,902201;0;1;1;0;
  ElmLod_8_1;C;lod_8_1;144;905;DEF;42,426407;30;30;0,707107;0;1;1;0;
  ElmLod_10_1;C;lod_10_1;144;906;DEF;6,135145;5,8;2;0,945373;0;1;1;0;
  ElmLod_12_1;C;lod_12_1;144;907;DEF;13,479243;11,2;7,5;0,830907;0;1;1;0;
  ElmLod_14_1;C;lod_14_1;144;908;DEF;6,403124;6,2;1,6;0,968277;0;1;1;0;
  ElmLod_15_1;C;lod_15_1;144;909;DEF;8,572631;8,2;2,5;0,956532;0;1;1;0;
  ElmLod_16_1;C;lod_16_1;144;910;DEF;3,935734;3,5;1,8;0,889288;0;1;1;0;
  ElmLod_17_1;C;lod_17_1;144;911;DEF;10,707007;9;5,8;0,840571;0;1;1;0;
  ElmLod_18_1;C;lod_18_1;144;912;DEF;3,324154;3,2;0,9;0,962651;0;1;1;0;
  ElmLod_19_1;C;lod_19_1;144;913;DEF;10,090094;9,5;3,4;0,941517;0;1;1;0;
  ElmLod_20_1;C;lod_20_1;144;914;DEF;2,308679;2,2;0,7;0,952926;0;1;1;0;
  ElmLod_21_1;C;lod_21_1;144;915;DEF;20,777151;17,5;11,2;0,842271;0;1;1;0;
  ElmLod_23_1;C;lod_23_1;144;916;DEF;3,577709;3,2;1,6;0,894427;0;1;1;0;
  ElmLod_24_1;C;lod_24_1;144;917;DEF;10,980892;8,7;6,7;0,792285;0;1;1;0;
  ElmLod_26_1;C;lod_26_1;144;918;DEF;4,188078;3,5;2,3;0,835705;0;1;1;0;
  ElmLod_29_1;C;lod_29_1;144;919;DEF;2,563201;2,4;0,9;0,936329;0;1;1;0;
  ElmLod_30_1;C;lod_30_1;144;920;DEF;10,768937;10,6;1,9;0,984313;0;1;1;0;

$$ElmNet;FID(a:40);OP(a:1);loc_name(a:80);fold_id(p);frnom(r);pDiagram(p)
  144;C;1 IEEE30_from_RAW;;60;

$$ElmShnt;FID(a:40);OP(a:1);loc_name(a:80);fold_id(p);systp(i);ctech(i);shtype(i);ushnm(r);mode_inp(a:6);qcapn(r);ncapx(i);ncapa(i);outserv(i);qrean(r);qtotn(r);tandc(r);fres(r);greaf0(r);grea(r);bcap(r);xrea(r);rrea(r);gparac(r);iswitch(i);imldc(a:2);usetp_mx(r);usetp_mn(r);qsetp_mx(r);qsetp_mn(r);iQorient(i);ilcph(i)
  10010;C;shntfix_10_1;144;0;1;2;33;LAY;19;1;1;0;0;19;0;0;0;0;17447,199265;66,56028;0;0;0;V;1,05;0,95;0;0;0;0
  10024;C;shntfix_24_1;144;0;1;2;33;LAY;4,3;1;1;0;0;4,3;0;0;0;0;3948,576676;66,56028;0;0;0;V;1,05;0,95;0;0;0;0

$$ElmSym;FID(a:40);OP(a:1);loc_name(a:80);fold_id(p);typ_id(p);cCategory(a);ngnum(i);i_mot(i);pgini(r);qgini(r);cosgini(r);usetp(r);pf_recap(i);q_min(r);q_max(r);outserv(i);av_mode(a);phtech(i);ip_ctrl(i)
  20000;C;sym_1_1;144;1200;Others;1;0;260,948;-16,787;0,997937;1,06;1;0;0;0;constv;1;1
  20001;C;sym_2_1;144;1201;Others;1;0;40;50;0,624695;1,045;0;-0,4;0,5;0;constv;1;0
  20002;C;sym_5_1;144;1202;Others;1;0;0;36,85;0;1,01;0;-0,4;0,4;0;constv;1;0
  20003;C;sym_8_1;144;1203;Others;1;0;0;37,144;0;1,01;0;-0,1;0,4;0;constv;1;0
  20004;C;sym_11_1;144;1204;Others;1;0;0;16,172;0;1,082;0;-0,06;0,24;0;constv;1;0
  20005;C;sym_13_1;144;1205;Others;1;0;0;10,619;0;1,071;0;-0,06;0,24;0;constv;1;0

$$ElmTerm;FID(a:40);OP(a:1);loc_name(a:80);fold_id(p);typ_id(p);systype(i);iUsage(i);uknom(r);unknom(r);iminus(i);outserv(i);GPSlat(r);GPSlon(r);vtarget(r)
  ElmTerm_1;C;Glen Lyn;144;;0;0;132;76,210236;0;0;0;0;1
  ElmTerm_2;C;Claytor;144;;0;0;132;76,210236;0;0;0;0;1
  ElmTerm_3;C;Kumis;144;;0;0;132;76,210236;0;0;0;0;1
  ElmTerm_4;C;Hancock;144;;0;0;132;76,210236;0;0;0;0;1
  ElmTerm_5;C;Fieldale;144;;0;0;132;76,210236;0;0;0;0;1
  ElmTerm_6;C;Roanoke;144;;0;0;132;76,210236;0;0;0;0;1
  ElmTerm_7;C;Blaine;144;;0;0;132;76,210236;0;0;0;0;1
  ElmTerm_8;C;Reusens;144;;0;0;132;76,210236;0;0;0;0;1
  ElmTerm_9;C;Roanoke;144;;0;0;1;0,57735;0;0;0;0;1
  ElmTerm_10;C;Roanoke;144;;0;0;33;19,052559;0;0;0;0;1
  ElmTerm_11;C;Roanoke;144;;0;0;11;6,350853;0;0;0;0;1
  ElmTerm_12;C;Hancock;144;;0;0;33;19,052559;0;0;0;0;1
  ElmTerm_13;C;Hancock;144;;0;0;11;6,350853;0;0;0;0;1
  ElmTerm_14;C;Bus 14;144;;0;0;33;19,052559;0;0;0;0;1
  ElmTerm_15;C;Bus 15;144;;0;0;33;19,052559;0;0;0;0;1
  ElmTerm_16;C;Bus 16;144;;0;0;33;19,052559;0;0;0;0;1
  ElmTerm_17;C;Bus 17;144;;0;0;33;19,052559;0;0;0;0;1
  ElmTerm_18;C;Bus 18;144;;0;0;33;19,052559;0;0;0;0;1
  ElmTerm_19;C;Bus 19;144;;0;0;33;19,052559;0;0;0;0;1
  ElmTerm_20;C;Bus 20;144;;0;0;33;19,052559;0;0;0;0;1
  ElmTerm_21;C;Bus 21;144;;0;0;33;19,052559;0;0;0;0;1
  ElmTerm_22;C;Bus 22;144;;0;0;33;19,052559;0;0;0;0;1
  ElmTerm_23;C;Bus 23;144;;0;0;33;19,052559;0;0;0;0;1
  ElmTerm_24;C;Bus 24;144;;0;0;33;19,052559;0;0;0;0;1
  ElmTerm_25;C;Bus 25;144;;0;0;33;19,052559;0;0;0;0;1
  ElmTerm_26;C;Bus 26;144;;0;0;33;19,052559;0;0;0;0;1
  ElmTerm_27;C;Cloverdl;144;;0;0;33;19,052559;0;0;0;0;1
  ElmTerm_28;C;Cloverdl;144;;0;0;132;76,210236;0;0;0;0;1
  ElmTerm_29;C;Bus 29;144;;0;0;33;19,052559;0;0;0;0;1
  ElmTerm_30;C;Bus 30;144;;0;0;33;19,052559;0;0;0;0;1

$$ElmTr2;FID(a:40);OP(a:1);loc_name(a:80);fold_id(p);typ_id(p);ntnum(i);outserv(i);nntap(i);i_auto(i);ntrcn(i);usetp(r);usp_low(r);usp_up(r);t2ldc(i)
  ElmTr2_4_12_1;C;4_12_1;144;700;1;0;-1;0;0;1;0,99;1,01;0
  ElmTr2_6_9_1;C;6_9_1;144;701;1;0;-1;0;0;1;0,99;1,01;0
  ElmTr2_6_10_1;C;6_10_1;144;702;1;0;-1;0;0;1;0,99;1,01;0
  ElmTr2_28_27_1;C;28_27_1;144;706;1;0;-1;0;0;1;0,99;1,01;0
  ElmTr2_10_9_1;C;9_10_1;144;703;1;0;-1;0;0;1;0,99;1,01;0
  ElmTr2_11_9_1;C;9_11_1;144;704;1;0;-1;0;0;1;0,99;1,01;0
  ElmTr2_12_13_1;C;12_13_1;144;705;1;0;-1;0;0;1;0,99;1,01;0

$$ElmZone;FID(a:40);OP(a:1);loc_name(a:80);fold_id(p);icolor(i);curscale(r)
  153;C;1_IEEE30_RAW;;1;1

$$StaCubic;FID(a:40);OP(a:1);loc_name(a:80);fold_id(p);obj_bus(i);obj_id(p);it2p1(i);it2p2(i);it2p3(i)
  200;C;lne_1_2_1;ElmTerm_1;0;100;0;1;2
  201;C;lne_1_2_1;ElmTerm_2;1;100;0;1;2
  202;C;lne_1_3_1;ElmTerm_1;0;101;0;1;2
  203;C;lne_1_3_1;ElmTerm_3;1;101;0;1;2
  204;C;lne_2_4_1;ElmTerm_2;0;102;0;1;2
  205;C;lne_2_4_1;ElmTerm_4;1;102;0;1;2
  206;C;lne_2_5_1;ElmTerm_2;0;103;0;1;2
  207;C;lne_2_5_1;ElmTerm_5;1;103;0;1;2
  208;C;lne_2_6_1;ElmTerm_2;0;104;0;1;2
  209;C;lne_2_6_1;ElmTerm_6;1;104;0;1;2
  210;C;lne_3_4_1;ElmTerm_3;0;105;0;1;2
  211;C;lne_3_4_1;ElmTerm_4;1;105;0;1;2
  212;C;lne_4_6_1;ElmTerm_4;0;106;0;1;2
  213;C;lne_4_6_1;ElmTerm_6;1;106;0;1;2
  214;C;lne_5_7_1;ElmTerm_5;0;107;0;1;2
  215;C;lne_5_7_1;ElmTerm_7;1;107;0;1;2
  216;C;lne_6_7_1;ElmTerm_6;0;108;0;1;2
  217;C;lne_6_7_1;ElmTerm_7;1;108;0;1;2
  218;C;lne_6_8_1;ElmTerm_6;0;109;0;1;2
  219;C;lne_6_8_1;ElmTerm_8;1;109;0;1;2
  220;C;lne_6_28_1;ElmTerm_6;0;110;0;1;2
  221;C;lne_6_28_1;ElmTerm_28;1;110;0;1;2
  222;C;lne_8_28_1;ElmTerm_8;0;111;0;1;2
  223;C;lne_8_28_1;ElmTerm_28;1;111;0;1;2
  224;C;lne_10_17_1;ElmTerm_10;0;112;0;1;2
  225;C;lne_10_17_1;ElmTerm_17;1;112;0;1;2
  226;C;lne_10_20_1;ElmTerm_10;0;113;0;1;2
  227;C;lne_10_20_1;ElmTerm_20;1;113;0;1;2
  228;C;lne_10_21_1;ElmTerm_10;0;114;0;1;2
  229;C;lne_10_21_1;ElmTerm_21;1;114;0;1;2
  230;C;lne_10_22_1;ElmTerm_10;0;115;0;1;2
  231;C;lne_10_22_1;ElmTerm_22;1;115;0;1;2
  232;C;lne_12_14_1;ElmTerm_12;0;116;0;1;2
  233;C;lne_12_14_1;ElmTerm_14;1;116;0;1;2
  234;C;lne_12_15_1;ElmTerm_12;0;117;0;1;2
  235;C;lne_12_15_1;ElmTerm_15;1;117;0;1;2
  236;C;lne_12_16_1;ElmTerm_12;0;118;0;1;2
  237;C;lne_12_16_1;ElmTerm_16;1;118;0;1;2
  238;C;lne_14_15_1;ElmTerm_14;0;119;0;1;2
  239;C;lne_14_15_1;ElmTerm_15;1;119;0;1;2
  240;C;lne_15_18_1;ElmTerm_15;0;120;0;1;2
  241;C;lne_15_18_1;ElmTerm_18;1;120;0;1;2
  242;C;lne_15_23_1;ElmTerm_15;0;121;0;1;2
  243;C;lne_15_23_1;ElmTerm_23;1;121;0;1;2
  244;C;lne_16_17_1;ElmTerm_16;0;122;0;1;2
  245;C;lne_16_17_1;ElmTerm_17;1;122;0;1;2
  246;C;lne_18_19_1;ElmTerm_18;0;123;0;1;2
  247;C;lne_18_19_1;ElmTerm_19;1;123;0;1;2
  248;C;lne_19_20_1;ElmTerm_19;0;124;0;1;2
  249;C;lne_19_20_1;ElmTerm_20;1;124;0;1;2
  250;C;lne_21_22_1;ElmTerm_21;0;125;0;1;2
  251;C;lne_21_22_1;ElmTerm_22;1;125;0;1;2
  252;C;lne_22_24_1;ElmTerm_22;0;126;0;1;2
  253;C;lne_22_24_1;ElmTerm_24;1;126;0;1;2
  254;C;lne_23_24_1;ElmTerm_23;0;127;0;1;2
  255;C;lne_23_24_1;ElmTerm_24;1;127;0;1;2
  256;C;lne_24_25_1;ElmTerm_24;0;128;0;1;2
  257;C;lne_24_25_1;ElmTerm_25;1;128;0;1;2
  258;C;lne_25_26_1;ElmTerm_25;0;129;0;1;2
  259;C;lne_25_26_1;ElmTerm_26;1;129;0;1;2
  260;C;lne_25_27_1;ElmTerm_25;0;130;0;1;2
  261;C;lne_25_27_1;ElmTerm_27;1;130;0;1;2
  262;C;lne_27_29_1;ElmTerm_27;0;131;0;1;2
  263;C;lne_27_29_1;ElmTerm_29;1;131;0;1;2
  264;C;lne_27_30_1;ElmTerm_27;0;132;0;1;2
  265;C;lne_27_30_1;ElmTerm_30;1;132;0;1;2
  266;C;lne_29_30_1;ElmTerm_29;0;133;0;1;2
  267;C;lne_29_30_1;ElmTerm_30;1;133;0;1;2
  268;C;trf_4_12_1;ElmTerm_4;0;ElmTr2_4_12_1;0;1;2
  269;C;trf_4_12_1;ElmTerm_12;1;ElmTr2_4_12_1;0;1;2
  270;C;trf_6_9_1;ElmTerm_6;0;ElmTr2_6_9_1;0;1;2
  271;C;trf_6_9_1;ElmTerm_9;1;ElmTr2_6_9_1;0;1;2
  272;C;trf_6_10_1;ElmTerm_6;0;ElmTr2_6_10_1;0;1;2
  273;C;trf_6_10_1;ElmTerm_10;1;ElmTr2_6_10_1;0;1;2
  280;C;trf_28_27_1;ElmTerm_28;0;ElmTr2_28_27_1;0;1;2
  281;C;trf_28_27_1;ElmTerm_27;1;ElmTr2_28_27_1;0;1;2
  274;C;trf_9_10_1;ElmTerm_9;0;ElmTr2_10_9_1;0;1;2
  275;C;trf_9_10_1;ElmTerm_10;1;ElmTr2_10_9_1;0;1;2
  276;C;trf_9_11_1;ElmTerm_9;1;ElmTr2_11_9_1;0;1;2
  277;C;trf_9_11_1;ElmTerm_11;0;ElmTr2_11_9_1;0;1;2
  278;C;trf_12_13_1;ElmTerm_12;0;ElmTr2_12_13_1;0;1;2
  279;C;trf_12_13_1;ElmTerm_13;1;ElmTr2_12_13_1;0;1;2
  282;C;lod_2_1;ElmTerm_2;0;ElmLod_2_1;0;1;2
  283;C;lod_3_1;ElmTerm_3;0;ElmLod_3_1;0;1;2
  284;C;lod_4_1;ElmTerm_4;0;ElmLod_4_1;0;1;2
  285;C;lod_5_1;ElmTerm_5;0;ElmLod_5_1;0;1;2
  286;C;lod_7_1;ElmTerm_7;0;ElmLod_7_1;0;1;2
  287;C;lod_8_1;ElmTerm_8;0;ElmLod_8_1;0;1;2
  288;C;lod_10_1;ElmTerm_10;0;ElmLod_10_1;0;1;2
  289;C;lod_12_1;ElmTerm_12;0;ElmLod_12_1;0;1;2
  290;C;lod_14_1;ElmTerm_14;0;ElmLod_14_1;0;1;2
  291;C;lod_15_1;ElmTerm_15;0;ElmLod_15_1;0;1;2
  292;C;lod_16_1;ElmTerm_16;0;ElmLod_16_1;0;1;2
  293;C;lod_17_1;ElmTerm_17;0;ElmLod_17_1;0;1;2
  294;C;lod_18_1;ElmTerm_18;0;ElmLod_18_1;0;1;2
  295;C;lod_19_1;ElmTerm_19;0;ElmLod_19_1;0;1;2
  296;C;lod_20_1;ElmTerm_20;0;ElmLod_20_1;0;1;2
  297;C;lod_21_1;ElmTerm_21;0;ElmLod_21_1;0;1;2
  298;C;lod_23_1;ElmTerm_23;0;ElmLod_23_1;0;1;2
  299;C;lod_24_1;ElmTerm_24;0;ElmLod_24_1;0;1;2
  300;C;lod_26_1;ElmTerm_26;0;ElmLod_26_1;0;1;2
  301;C;lod_29_1;ElmTerm_29;0;ElmLod_29_1;0;1;2
  302;C;lod_30_1;ElmTerm_30;0;ElmLod_30_1;0;1;2
  303;C;shntfix_10_1;ElmTerm_10;0;10010;0;1;2
  304;C;shntfix_24_1;ElmTerm_24;0;10024;0;1;2
  305;C;sym_1_1;ElmTerm_1;0;20000;0;1;2
  306;C;sym_2_1;ElmTerm_2;0;20001;0;1;2
  307;C;sym_5_1;ElmTerm_5;0;20002;0;1;2
  308;C;sym_8_1;ElmTerm_8;0;20003;0;1;2
  309;C;sym_11_1;ElmTerm_11;0;20004;0;1;2
  310;C;sym_13_1;ElmTerm_13;0;20005;0;1;2

$$StaSwitch;FID(a:40);OP(a:1);loc_name(a:80);fold_id(p);on_off(i);typ_id(p);aUsage(a)
  5000;C;Switch;200;1;;cbk
  5001;C;Switch;201;1;;cbk
  5002;C;Switch;202;1;;cbk
  5003;C;Switch;203;1;;cbk
  5004;C;Switch;204;1;;cbk
  5005;C;Switch;205;1;;cbk
  5006;C;Switch;206;1;;cbk
  5007;C;Switch;207;1;;cbk
  5008;C;Switch;208;1;;cbk
  5009;C;Switch;209;1;;cbk
  5010;C;Switch;210;1;;cbk
  5011;C;Switch;211;1;;cbk
  5012;C;Switch;212;1;;cbk
  5013;C;Switch;213;1;;cbk
  5014;C;Switch;214;1;;cbk
  5015;C;Switch;215;1;;cbk
  5016;C;Switch;216;1;;cbk
  5017;C;Switch;217;1;;cbk
  5018;C;Switch;218;1;;cbk
  5019;C;Switch;219;1;;cbk
  5020;C;Switch;220;1;;cbk
  5021;C;Switch;221;1;;cbk
  5022;C;Switch;222;1;;cbk
  5023;C;Switch;223;1;;cbk
  5024;C;Switch;224;1;;cbk
  5025;C;Switch;225;1;;cbk
  5026;C;Switch;226;1;;cbk
  5027;C;Switch;227;1;;cbk
  5028;C;Switch;228;1;;cbk
  5029;C;Switch;229;1;;cbk
  5030;C;Switch;230;1;;cbk
  5031;C;Switch;231;1;;cbk
  5032;C;Switch;232;1;;cbk
  5033;C;Switch;233;1;;cbk
  5034;C;Switch;234;1;;cbk
  5035;C;Switch;235;1;;cbk
  5036;C;Switch;236;1;;cbk
  5037;C;Switch;237;1;;cbk
  5038;C;Switch;238;1;;cbk
  5039;C;Switch;239;1;;cbk
  5040;C;Switch;240;1;;cbk
  5041;C;Switch;241;1;;cbk
  5042;C;Switch;242;1;;cbk
  5043;C;Switch;243;1;;cbk
  5044;C;Switch;244;1;;cbk
  5045;C;Switch;245;1;;cbk
  5046;C;Switch;246;1;;cbk
  5047;C;Switch;247;1;;cbk
  5048;C;Switch;248;1;;cbk
  5049;C;Switch;249;1;;cbk
  5050;C;Switch;250;1;;cbk
  5051;C;Switch;251;1;;cbk
  5052;C;Switch;252;1;;cbk
  5053;C;Switch;253;1;;cbk
  5054;C;Switch;254;1;;cbk
  5055;C;Switch;255;1;;cbk
  5056;C;Switch;256;1;;cbk
  5057;C;Switch;257;1;;cbk
  5058;C;Switch;258;1;;cbk
  5059;C;Switch;259;1;;cbk
  5060;C;Switch;260;1;;cbk
  5061;C;Switch;261;1;;cbk
  5062;C;Switch;262;1;;cbk
  5063;C;Switch;263;1;;cbk
  5064;C;Switch;264;1;;cbk
  5065;C;Switch;265;1;;cbk
  5066;C;Switch;266;1;;cbk
  5067;C;Switch;267;1;;cbk
  5068;C;Switch;268;1;;cbk
  5069;C;Switch;269;1;;cbk
  5070;C;Switch;270;1;;cbk
  5071;C;Switch;271;1;;cbk
  5072;C;Switch;272;1;;cbk
  5073;C;Switch;273;1;;cbk
  5074;C;Switch;274;1;;cbk
  5075;C;Switch;275;1;;cbk
  5076;C;Switch;276;1;;cbk
  5077;C;Switch;277;1;;cbk
  5078;C;Switch;278;1;;cbk
  5079;C;Switch;279;1;;cbk
  5080;C;Switch;280;1;;cbk
  5081;C;Switch;281;1;;cbk
  5082;C;Switch;282;1;;cbk
  5083;C;Switch;283;1;;cbk
  5084;C;Switch;284;1;;cbk
  5085;C;Switch;285;1;;cbk
  5086;C;Switch;286;1;;cbk
  5087;C;Switch;287;1;;cbk
  5088;C;Switch;288;1;;cbk
  5089;C;Switch;289;1;;cbk
  5090;C;Switch;290;1;;cbk
  5091;C;Switch;291;1;;cbk
  5092;C;Switch;292;1;;cbk
  5093;C;Switch;293;1;;cbk
  5094;C;Switch;294;1;;cbk
  5095;C;Switch;295;1;;cbk
  5096;C;Switch;296;1;;cbk
  5097;C;Switch;297;1;;cbk
  5098;C;Switch;298;1;;cbk
  5099;C;Switch;299;1;;cbk
  5100;C;Switch;300;1;;cbk
  5101;C;Switch;301;1;;cbk
  5102;C;Switch;302;1;;cbk
  5103;C;Switch;303;1;;cbk
  5104;C;Switch;304;1;;cbk
  5105;C;Switch;305;1;;cbk
  5106;C;Switch;306;1;;cbk
  5107;C;Switch;307;1;;cbk
  5108;C;Switch;308;1;;cbk
  5109;C;Switch;309;1;;cbk
  5110;C;Switch;310;1;;cbk

$$TypLne;FID(a:40);OP(a:1);loc_name(a:80);fold_id(p);uline(r);sline(r);InomAir(r);cohl_(i);rline(r);xline(r);rline0(r);xline0(r);Ithr(r);tmax(r);rtemp(r);systp(i);nlnph(i);nneutral(i);frnom(r);mlei(a:4);bline(r);bline0(r)
  300;C;tlne_1_2_1;144;132;130;1;0;3,345408;10,0188;1e+08;1e+08;0;80;80;0;3;0;60;Cu;303,030303;0
  301;C;tlne_1_3_1;144;132;130;1;0;7,875648;28,784448;1e+08;1e+08;0;80;80;0;3;0;60;Cu;234,15978;0
  302;C;tlne_2_4_1;144;132;65;1;0;9,93168;30,265488;1e+08;1e+08;0;80;80;0;3;0;60;Cu;211,202938;0
  303;C;tlne_2_5_1;144;132;130;1;0;8,224128;34,551792;1e+08;1e+08;0;80;80;0;3;0;60;Cu;239,89899;0
  304;C;tlne_2_6_1;144;132;65;1;0;10,123344;30,718512;1e+08;1e+08;0;80;80;0;3;0;60;Cu;214,646465;0
  305;C;tlne_3_4_1;144;132;130;1;0;2,299968;6,603696;1e+08;1e+08;0;80;80;0;3;0;60;Cu;48,209366;0
  306;C;tlne_4_6_1;144;132;90;1;0;2,073456;7,213536;1e+08;1e+08;0;80;80;0;3;0;60;Cu;51,652893;0
  307;C;tlne_5_7_1;144;132;70;1;0;8,01504;20,21184;1e+08;1e+08;0;80;80;0;3;0;60;Cu;117,07989;0
  308;C;tlne_6_7_1;144;132;130;1;0;4,652208;14,28768;1e+08;1e+08;0;80;80;0;3;0;60;Cu;97,566575;0
  309;C;tlne_6_8_1;144;132;32;1;0;2,09088;7,31808;1e+08;1e+08;0;80;80;0;3;0;60;Cu;51,652893;0
  310;C;tlne_6_28_1;144;132;99999;1;0;2,944656;10,436976;1e+08;1e+08;0;80;80;0;3;0;60;Cu;74,609734;0
  311;C;tlne_8_28_1;144;132;99999;1;0;11,081664;34,848;1e+08;1e+08;0;80;80;0;3;0;60;Cu;245,6382;0
  312;C;tlne_10_17_1;144;33;99999;1;0;0,352836;0,920205;1e+08;1e+08;0;80;80;0;3;0;60;Cu;0;0
  313;C;tlne_10_20_1;144;33;32;1;0;1,019304;2,27601;1e+08;1e+08;0;80;80;0;3;0;60;Cu;0;0
  314;C;tlne_10_21_1;144;33;99999;1;0;0,378972;0,815661;1e+08;1e+08;0;80;80;0;3;0;60;Cu;0;0
  315;C;tlne_10_22_1;144;33;99999;1;0;0,791703;1,632411;1e+08;1e+08;0;80;80;0;3;0;60;Cu;0;0
  316;C;tlne_12_14_1;144;33;99999;1;0;1,340559;2,786751;1e+08;1e+08;0;80;80;0;3;0;60;Cu;0;0
  317;C;tlne_12_15_1;144;33;32;1;0;0,720918;1,420056;1e+08;1e+08;0;80;80;0;3;0;60;Cu;0;0
  318;C;tlne_12_16_1;144;33;16;1;0;1,029105;2,163843;1e+08;1e+08;0;80;80;0;3;0;60;Cu;0;0
  319;C;tlne_14_15_1;144;33;16;1;0;2,40669;2,174733;1e+08;1e+08;0;80;80;0;3;0;60;Cu;0;0
  320;C;tlne_15_18_1;144;33;16;1;0;1,168497;2,379465;1e+08;1e+08;0;80;80;0;3;0;60;Cu;0;0
  321;C;tlne_15_23_1;144;33;99999;1;0;1,089;2,19978;1e+08;1e+08;0;80;80;0;3;0;60;Cu;0;0
  322;C;tlne_16_17_1;144;33;16;1;0;0,570636;2,094147;1e+08;1e+08;0;80;80;0;3;0;60;Cu;0;0
  323;C;tlne_18_19_1;144;33;16;1;0;0,695871;1,406988;1e+08;1e+08;0;80;80;0;3;0;60;Cu;0;0
  324;C;tlne_19_20_1;144;33;16;1;0;0,37026;0,74052;1e+08;1e+08;0;80;80;0;3;0;60;Cu;0;0
  325;C;tlne_21_22_1;144;33;99999;1;0;0,126324;0,257004;1e+08;1e+08;0;80;80;0;3;0;60;Cu;0;0
  326;C;tlne_22_24_1;144;33;99999;1;0;1,25235;1,94931;1e+08;1e+08;0;80;80;0;3;0;60;Cu;0;0
  327;C;tlne_23_24_1;144;33;99999;1;0;1,43748;2,9403;1e+08;1e+08;0;80;80;0;3;0;60;Cu;0;0
  328;C;tlne_24_25_1;144;33;99999;1;0;2,052765;3,584988;1e+08;1e+08;0;80;80;0;3;0;60;Cu;0;0
  329;C;tlne_25_26_1;144;33;99999;1;0;2,770416;4,1382;1e+08;1e+08;0;80;80;0;3;0;60;Cu;0;0
  330;C;tlne_25_27_1;144;33;99999;1;0;1,190277;2,272743;1e+08;1e+08;0;80;80;0;3;0;60;Cu;0;0
  331;C;tlne_27_29_1;144;33;99999;1;0;2,393622;4,522617;1e+08;1e+08;0;80;80;0;3;0;60;Cu;0;0
  332;C;tlne_27_30_1;144;33;99999;1;0;3,486978;6,563403;1e+08;1e+08;0;80;80;0;3;0;60;Cu;0;0
  333;C;tlne_29_30_1;144;33;99999;1;0;2,612511;4,936437;1e+08;1e+08;0;80;80;0;3;0;60;Cu;0;0

$$TypLod;FID(a:40);OP(a:1);loc_name(a:80);fold_id(p);systp(i);phtech(i);aP(r);bP(r);kpu0(r);kpu1(r);kpu(r);aQ(r);bQ(r);kqu0(r);kqu1(r);kqu(r)
  900;C;typ_lod_2_1;144;0;0;1;0;0;1;2;1;0;0;1;2
  901;C;typ_lod_3_1;144;0;0;1;0;0;1;2;1;0;0;1;2
  902;C;typ_lod_4_1;144;0;0;1;0;0;1;2;1;0;0;1;2
  903;C;typ_lod_5_1;144;0;0;1;0;0;1;2;1;0;0;1;2
  904;C;typ_lod_7_1;144;0;0;1;0;0;1;2;1;0;0;1;2
  905;C;typ_lod_8_1;144;0;0;1;0;0;1;2;1;0;0;1;2
  906;C;typ_lod_10_1;144;0;0;1;0;0;1;2;1;0;0;1;2
  907;C;typ_lod_12_1;144;0;0;1;0;0;1;2;1;0;0;1;2
  908;C;typ_lod_14_1;144;0;0;1;0;0;1;2;1;0;0;1;2
  909;C;typ_lod_15_1;144;0;0;1;0;0;1;2;1;0;0;1;2
  910;C;typ_lod_16_1;144;0;0;1;0;0;1;2;1;0;0;1;2
  911;C;typ_lod_17_1;144;0;0;1;0;0;1;2;1;0;0;1;2
  912;C;typ_lod_18_1;144;0;0;1;0;0;1;2;1;0;0;1;2
  913;C;typ_lod_19_1;144;0;0;1;0;0;1;2;1;0;0;1;2
  914;C;typ_lod_20_1;144;0;0;1;0;0;1;2;1;0;0;1;2
  915;C;typ_lod_21_1;144;0;0;1;0;0;1;2;1;0;0;1;2
  916;C;typ_lod_23_1;144;0;0;1;0;0;1;2;1;0;0;1;2
  917;C;typ_lod_24_1;144;0;0;1;0;0;1;2;1;0;0;1;2
  918;C;typ_lod_26_1;144;0;0;1;0;0;1;2;1;0;0;1;2
  919;C;typ_lod_29_1;144;0;0;1;0;0;1;2;1;0;0;1;2
  920;C;typ_lod_30_1;144;0;0;1;0;0;1;2;1;0;0;1;2

$$TypSym;FID(a:40);OP(a:1);loc_name(a:80);fold_id(p);sgn(r);ugn(r);cosn(r);xd(r);xq(r);xdsss(r);rstr(r);xdsat(r);satur(i);nphase(i);nslty(i);x0sy(r);r0sy(r);x2sy(r);r2sy(r);iopt_data(i);xds(r);xqs(r);xl(r);xdss(r);xqss(r);xrlq(r);tds(r);tqs(r);tdss(r);tqss(r)
  1200;C;tsym_1_1;144;100;132;1;2;2;1;0;1,2;0;3;2;0;0;1;0;1;0,3;0,3;0,5;1;1;0;1;1;0,05;0,05
  1201;C;tsym_2_1;144;100;132;1;2;2;1;0;1,2;0;3;2;0;0;1;0;1;0,3;0,3;0,5;1;1;0;1;1;0,05;0,05
  1202;C;tsym_5_1;144;100;132;1;2;2;1;0;1,2;0;3;2;0;0;1;0;1;0,3;0,3;0,5;1;1;0;1;1;0,05;0,05
  1203;C;tsym_8_1;144;100;132;1;2;2;1;0;1,2;0;3;2;0;0;1;0;1;0,3;0,3;0,5;1;1;0;1;1;0,05;0,05
  1204;C;tsym_11_1;144;100;11;1;2;2;1;0;1,2;0;3;2;0;0;1;0;1;0,3;0,3;0,5;1;1;0;1;1;0,05;0,05
  1205;C;tsym_13_1;144;100;11;1;2;2;1;0;1,2;0;3;2;0;0;1;0;1;0,3;0,3;0,5;1;1;0;1;1;0,05;0,05

$$TypTr2;FID(a:40);OP(a:1);loc_name(a:80);fold_id(p);nt2ph(i);strn(r);frnom(r);utrn_h(r);utrn_l(r);uktr(r);pcutr(r);uk0tr(r);ur0tr(r);tr2cn_h(a:4);tr2cn_l(a:4);nt2ag(r);curmg(r);pfe(r);zx0hl_n(r);itapch(i);tap_side(i);dutap(r);phitr(r);nntap0(i);ntpmn(i);ntpmx(i);manuf(a:40)
  700;C;ttrf_4_12_1;144;3;100;60;132;33;25,6;0;3;0;YN;YN;0;0;0;100;1;0;6,8;0;0;-1;0;
  701;C;ttrf_6_9_1;144;3;100;60;132;1;20,8;0;3;0;YN;YN;0;0;0;100;1;0;2,2;0;0;-1;0;
  702;C;ttrf_6_10_1;144;3;100;60;132;33;55,6;0;3;0;YN;YN;0;0;0;100;1;0;3,1;0;0;-1;0;
  706;C;ttrf_28_27_1;144;3;100;60;132;33;39,6;0;3;0;YN;YN;0;0;0;100;1;0;3,2;0;0;-1;0;
  703;C;ttrf_9_10_1;144;3;100;60;33;1;11;0;3;0;YN;YN;0;0;0;100;1;0;0;0;0;-1;0;
  704;C;ttrf_9_11_1;144;3;100;60;11;1;20,8;0;3;0;YN;YN;0;0;0;100;1;0;0;0;0;-1;0;
  705;C;ttrf_12_13_1;144;3;100;60;33;11;14;0;3;0;YN;YN;0;0;0;100;1;0;0;0;0;-1;0;